Version 4
SHEET 1 4496 2644
WIRE 688 720 688 688
WIRE 768 720 688 720
WIRE 688 736 688 720
WIRE 768 736 768 720
WIRE -496 768 -496 688
WIRE 688 832 688 816
WIRE 688 832 624 832
WIRE 768 832 768 800
WIRE 768 832 688 832
WIRE 624 848 624 832
WIRE 688 848 688 832
WIRE 768 864 768 832
WIRE -496 880 -496 848
WIRE -496 880 -464 864
WIRE -448 880 -496 880
WIRE -336 880 -368 880
WIRE -496 912 -496 880
WIRE 224 944 224 928
WIRE 688 944 688 928
WIRE 768 944 768 928
WIRE 768 944 688 944
WIRE 688 976 688 944
WIRE -496 1008 -496 992
WIRE 80 1040 80 928
WIRE 224 1056 224 1024
WIRE -864 1120 -864 1072
WIRE -640 1136 -640 1056
WIRE -640 1136 -656 1136
WIRE -608 1136 -640 1136
WIRE -496 1136 -496 1056
WIRE -496 1136 -528 1136
WIRE -480 1136 -496 1136
WIRE -256 1136 -288 1136
WIRE -144 1136 -176 1136
WIRE 224 1200 224 1120
WIRE 224 1200 288 1184
WIRE 224 1216 224 1200
WIRE -864 1232 -864 1200
WIRE -848 1232 -800 1200
WIRE -848 1232 -864 1232
WIRE -768 1232 -848 1232
WIRE -656 1232 -656 1136
WIRE -656 1232 -688 1232
WIRE -592 1232 -656 1232
WIRE -480 1248 -480 1136
WIRE -480 1248 -528 1248
WIRE -464 1248 -416 1168
WIRE -464 1248 -480 1248
WIRE -448 1248 -464 1248
WIRE -336 1248 -336 880
WIRE -336 1248 -368 1248
WIRE -288 1248 -288 1136
WIRE -288 1248 -336 1248
WIRE -256 1248 -288 1248
WIRE -592 1264 -624 1264
WIRE -144 1264 -144 1136
WIRE -144 1264 -192 1264
WIRE -96 1264 -32 1200
WIRE -96 1264 -144 1264
WIRE -48 1264 -96 1264
WIRE 80 1264 80 1120
WIRE 80 1264 32 1264
WIRE 144 1264 128 1216
WIRE 144 1264 80 1264
WIRE 160 1264 144 1264
WIRE -864 1280 -864 1232
WIRE -256 1280 -288 1280
WIRE -624 1296 -624 1264
WIRE -288 1312 -288 1280
WIRE 416 1360 288 1360
WIRE -864 1392 -864 1360
WIRE 768 1408 720 1408
WIRE 288 1440 288 1360
WIRE 320 1440 288 1440
WIRE 768 1440 768 1408
WIRE -144 1456 -192 1456
WIRE 144 1456 144 1408
WIRE 144 1456 80 1456
WIRE 416 1456 416 1360
WIRE 416 1456 384 1456
WIRE 480 1456 416 1456
WIRE 720 1456 720 1408
WIRE 144 1472 144 1456
WIRE 224 1472 224 1312
WIRE 320 1472 224 1472
WIRE -192 1488 -192 1456
WIRE -144 1520 -288 1520
WIRE 112 1520 80 1520
WIRE 144 1552 144 1536
WIRE 672 1568 656 1568
WIRE 768 1568 768 1520
WIRE 768 1568 752 1568
WIRE 800 1568 768 1568
WIRE -288 1584 -288 1520
WIRE -256 1584 -288 1584
WIRE -144 1584 -176 1584
WIRE 112 1584 112 1520
WIRE 112 1584 80 1584
WIRE 224 1584 224 1472
WIRE 224 1584 272 1536
WIRE 224 1584 112 1584
WIRE 768 1600 768 1568
WIRE -384 1648 -384 1600
WIRE -384 1648 -416 1648
WIRE -352 1648 -352 1600
WIRE -144 1648 -352 1648
WIRE 112 1648 80 1648
WIRE 112 1664 112 1648
WIRE 224 1664 224 1584
WIRE -288 1680 -288 1584
WIRE 768 1696 768 1680
WIRE -288 1760 -288 1744
WIRE 112 1760 112 1728
WIRE 224 1760 224 1728
FLAG 624 848 0
FLAG 688 688 V+
FLAG 688 976 V-
FLAG -224 1232 V+
FLAG -224 1296 V-
FLAG -288 1312 0
FLAG 144 1408 V+
FLAG 112 1760 0
FLAG 144 1552 0
FLAG 800 1568 UP-SAW_ZeroAdj
IOPIN 800 1568 Out
FLAG -624 1296 0
FLAG -560 1216 V+
FLAG -560 1280 V-
FLAG -192 1488 0
FLAG -288 1760 0
FLAG -416 1648 Trigger
IOPIN -416 1648 In
FLAG -496 688 V+
FLAG -800 1200 TP-1
IOPIN -800 1200 BiDir
FLAG -464 864 TP-2
IOPIN -464 864 BiDir
FLAG -32 1200 TP-4
IOPIN -32 1200 BiDir
FLAG -416 1168 TP-3
IOPIN -416 1168 BiDir
FLAG 272 1536 TP-6
IOPIN 272 1536 BiDir
FLAG 224 928 V+
FLAG 80 928 V+
FLAG -496 1008 V-
FLAG -864 1072 V+
FLAG -864 1392 0
FLAG 128 1216 Vb
FLAG 288 1184 Ve
FLAG 352 1424 V+
FLAG 352 1488 V-
FLAG 224 1760 0
FLAG 768 1696 V-
FLAG 720 1456 0
FLAG 480 1456 UP-SAW
IOPIN 480 1456 Out
FLAG 656 1568 UP-SAW
IOPIN 656 1568 In
SYMBOL voltage 688 720 R0
WINDOW 123 0 0 Left 2
WINDOW 39 0 0 Left 2
SYMATTR InstName V1
SYMATTR Value 12V
SYMBOL voltage 688 832 R0
WINDOW 123 0 0 Left 2
WINDOW 39 0 0 Left 2
WINDOW 0 17 16 Left 2
SYMATTR InstName V2
SYMATTR Value 12v
SYMBOL res -624 1152 R270
WINDOW 0 32 56 VTop 2
WINDOW 3 0 56 VBottom 2
SYMATTR InstName VR1
SYMATTR Value {FREQUENCY}
SYMBOL Opamps\\opamp2 -224 1200 R0
SYMATTR InstName U1-4
SYMATTR Value TL081
SYMBOL res -464 1264 R270
WINDOW 0 32 56 VTop 2
WINDOW 3 0 56 VBottom 2
SYMATTR InstName R4
SYMATTR Value 100k
SYMBOL res -272 1152 R270
WINDOW 0 32 56 VTop 2
WINDOW 3 0 56 VBottom 2
SYMATTR InstName R7
SYMATTR Value 100k
SYMBOL res -464 896 R270
WINDOW 0 32 56 VTop 2
WINDOW 3 0 56 VBottom 2
SYMATTR InstName R5
SYMATTR Value 220k
SYMBOL res -480 864 R180
WINDOW 0 -71 78 Left 2
WINDOW 3 -199 52 Left 2
SYMATTR InstName TR1a
SYMATTR Value {100k-LOWEST}
SYMBOL res -480 1008 R180
WINDOW 0 -64 63 Left 2
WINDOW 3 -118 30 Left 2
SYMATTR InstName TR1b
SYMATTR Value {LOWEST}
SYMBOL Misc\\NE555 -32 1552 R0
SYMATTR InstName U3
SYMBOL cap 96 1664 R0
SYMATTR InstName C3
SYMATTR Value 0.1u
SYMBOL cap 128 1472 R0
SYMATTR InstName C2
SYMATTR Value 0.1u
SYMBOL cap 208 1664 R0
SYMATTR InstName C4
SYMATTR Value 2.2u
SYMBOL Opamps\\opamp2 -560 1184 R0
SYMATTR InstName U1-1
SYMATTR Value TL081
SYMBOL res -784 1248 R270
WINDOW 0 32 56 VTop 2
WINDOW 3 0 56 VBottom 2
SYMATTR InstName R3
SYMATTR Value 100k
SYMBOL cap -304 1680 R0
SYMATTR InstName C1
SYMATTR Value 0.33u
SYMBOL res -272 1600 R270
WINDOW 0 32 56 VTop 2
WINDOW 3 0 56 VBottom 2
SYMATTR InstName R10
SYMATTR Value 1k
SYMBOL res -880 1264 R0
WINDOW 0 34 42 Left 2
WINDOW 3 35 69 Left 2
SYMATTR InstName TR2b
SYMATTR Value {RANGE}
SYMBOL res -880 1104 R0
WINDOW 0 26 13 Left 2
WINDOW 3 35 42 Left 2
SYMATTR InstName TR2a
SYMATTR Value {100k-RANGE}
SYMBOL pnp 160 1312 M180
WINDOW 0 47 62 Left 2
WINDOW 3 47 29 Left 2
SYMATTR InstName Q1
SYMATTR Value Q2SA1015
SYMBOL res 208 928 R0
SYMATTR InstName R100
SYMATTR Value 1k
SYMBOL res 64 1024 R0
SYMATTR InstName R9
SYMATTR Value 3.3k
SYMBOL res -64 1280 R270
WINDOW 0 32 56 VTop 2
WINDOW 3 0 56 VBottom 2
SYMATTR InstName R8
SYMATTR Value 22k
SYMBOL diode 208 1056 R0
SYMATTR InstName D1
SYMATTR Value 1N4148
SYMBOL Opamps\\opamp2 352 1392 R0
SYMATTR InstName U1-3
SYMATTR Value TL081
SYMBOL cap 752 736 R0
SYMATTR InstName C5
SYMATTR Value 0.1u
SYMBOL cap 752 864 R0
SYMATTR InstName C6
SYMATTR Value 0.1u
SYMBOL res 656 1584 R270
WINDOW 0 32 56 VTop 2
WINDOW 3 0 56 VBottom 2
SYMATTR InstName R1
SYMATTR Value 33k
SYMBOL res 752 1424 R0
SYMATTR InstName R2
SYMATTR Value 33k
SYMBOL res 752 1584 R0
SYMATTR InstName R11
SYMATTR Value 100k
TEXT -376 664 Left 2 !.include MyLib\\@syncton.lib
TEXT -664 1080 Left 2 ;VR1=100k - FREQUENCY
TEXT -528 728 VRight 2 ;TR1=100k - Lowest Rate
TEXT -376 720 Left 2 !.PARAM FREQUENCY=100k*0.0000001 RANGE=100k*0.543 LOWEST=100k*0.497\n.step param FREQUENCY list 100k 0.0000001
TEXT -504 1576 Left 2 ;Trigger Switch
TEXT 360 1056 Left 5 ;Tone Generator - Sawtooth
TEXT -896 1344 VLeft 2 ;Frequency Range
TEXT 504 1112 Left 2 ;TP4\n0.13915V ---- 0.199 Hz\n5.42917V ---- 19.6 Hz
TEXT -376 688 Left 2 !.tran 6s
